REMARK  Name = ligand.pdb
REMARK  8 active torsions:
REMARK  status: ('A' for Active; 'I' for Inactive)
REMARK    1  A    between atoms: C1_1  and  C2_2
REMARK    2  A    between atoms: C2_2  and  C3_3
REMARK    3  A    between atoms: C2_2  and  C4_4
REMARK    4  A    between atoms: C4_4  and  C5_5
REMARK    5  A    between atoms: C8_8  and  C11_11
REMARK    6  A    between atoms: C11_11  and  C12_12
REMARK    7  A    between atoms: C11_11  and  C13_13
REMARK    8  A    between atoms: C13_13  and  O2_15
REMARK                            x       y       z     vdW  Elec       q    Type
REMARK                         _______ _______ _______ _____ _____    ______ ____
ROOT
ATOM      1  C5  UNL     1       0.817  -0.736   0.027  0.00  0.00    +0.000 A 
ATOM      2  C6  UNL     1       0.231  -0.523  -1.207  0.00  0.00    +0.000 A 
ATOM      3  C7  UNL     1      -1.119  -0.234  -1.343  0.00  0.00    +0.000 A 
ATOM      4  C8  UNL     1      -1.926  -0.151  -0.241  0.00  0.00    +0.000 A 
ATOM      5  C9  UNL     1      -1.371  -0.357   0.987  0.00  0.00    +0.000 A 
ATOM      6  C10 UNL     1      -0.021  -0.646   1.125  0.00  0.00    +0.000 A 
ENDROOT
BRANCH   4   7
ATOM      7  C11 UNL     1      -3.375   0.163  -0.438  0.00  0.00    +0.000 C 
ATOM      8  C12 UNL     1      -4.195  -0.986   0.118  0.00  0.00    +0.000 C 
BRANCH   7   9
ATOM      9  C13 UNL     1      -3.757   1.419   0.226  0.00  0.00    +0.000 C 
ATOM     10  O1  UNL     1      -4.639   1.404   1.115  0.00  0.00    +0.000 OA
BRANCH   9  11
ATOM     11  O2  UNL     1      -3.173   2.627  -0.096  0.00  0.00    +0.000 OA
ATOM     12  H18 UNL     1      -3.112   3.315   0.670  0.00  0.00    +0.000 HD
ENDBRANCH   9  11
ENDBRANCH   7   9
ENDBRANCH   4   7
BRANCH   1  13
ATOM     13  C4  UNL     1       2.247  -1.036   0.097  0.00  0.00    +0.000 C 
BRANCH  13  15
ATOM     14  C1  UNL     1       4.562  -0.302   0.286  0.00  0.00    +0.000 C 
ATOM     15  C2  UNL     1       3.123   0.180   0.227  0.00  0.00    +0.000 C 
ATOM     16  C3  UNL     1       3.016   1.088  -0.978  0.00  0.00    +0.000 C 
ENDBRANCH  13  15
ENDBRANCH   1  13
TORSDOF 5
